
 OpenBabel01182309113D

 38 40  0  0  1  0  0  0  0  0999 V2000
  -10.6520   15.6080   33.1220 C   0  0  0  0  0  0  0  0  0  0  0  0
  -12.1320   15.3120   32.9150 C   0  0  0  0  0  0  0  0  0  0  0  0
   -9.8390   14.3680   33.4500 C   0  0  0  0  0  0  0  0  0  0  0  0
  -10.5140   16.5010   34.3430 C   0  0  0  0  0  0  0  0  0  0  0  0
  -10.1180   16.2780   32.0270 O   0  0  0  0  0  0  0  0  0  0  0  0
  -10.0810   15.7520   30.7350 C   0  0  0  0  0  0  0  0  0  0  0  0
   -9.1690   14.9890   30.4220 O   0  0  0  0  0  0  0  0  0  0  0  0
  -11.0090   16.1020   29.8520 N   0  0  0  0  0  0  0  0  0  0  0  0
  -11.0340   15.6200   28.4770 C   0  0  1  0  0  0  0  0  0  0  0  0
  -12.4740   15.3050   28.0710 C   0  0  0  0  0  0  0  0  0  0  0  0
  -13.0690   14.1930   28.9300 C   0  0  0  0  0  0  0  0  0  0  0  0
  -14.0650   14.4900   29.8700 C   0  0  0  0  0  0  0  0  0  0  0  0
  -14.5900   13.4580   30.6480 C   0  0  0  0  0  0  0  0  0  0  0  0
  -14.1380   12.1430   30.5000 C   0  0  0  0  0  0  0  0  0  0  0  0
  -13.1560   11.8530   29.5700 C   0  0  0  0  0  0  0  0  0  0  0  0
  -12.6200   12.8700   28.7860 C   0  0  0  0  0  0  0  0  0  0  0  0
  -10.4210   16.7000   27.5410 C   0  0  1  0  0  0  0  0  0  0  0  0
  -11.0130   18.0050   27.7150 O   0  0  0  0  0  0  0  0  0  0  0  0
   -8.9600   16.8980   27.8650 C   0  0  0  0  0  0  0  0  0  0  0  0
   -8.1280   17.6210   26.8790 C   0  0  1  0  0  0  0  0  0  0  0  0
   -6.7630   17.8950   27.5820 C   0  0  0  0  0  0  0  0  0  0  0  0
   -5.5980   18.0140   26.6140 C   0  0  0  0  0  0  0  0  0  0  0  0
   -4.6910   16.9510   26.5000 C   0  0  0  0  0  0  0  0  0  0  0  0
   -3.6960   16.9950   25.5380 C   0  0  0  0  0  0  0  0  0  0  0  0
   -3.6020   18.0940   24.6950 C   0  0  0  0  0  0  0  0  0  0  0  0
   -4.5030   19.1510   24.8050 C   0  0  0  0  0  0  0  0  0  0  0  0
   -5.5060   19.1210   25.7610 C   0  0  0  0  0  0  0  0  0  0  0  0
   -8.0190   16.7770   25.6070 C   0  0  0  0  0  0  0  0  0  0  0  0
   -7.7480   15.5820   25.6600 O   0  0  0  0  0  0  0  0  0  0  0  0
   -8.2020   17.4050   24.4550 N   0  0  0  0  0  0  0  0  0  0  0  0
   -8.1050   16.7030   23.1800 C   0  0  1  0  0  0  0  0  0  0  0  0
   -9.4460   16.6830   22.4220 C   0  0  0  0  0  0  0  0  0  0  0  0
  -10.5120   15.9660   23.2260 C   0  0  0  0  0  0  0  0  0  0  0  0
   -7.0610   17.4910   22.3880 C   0  0  0  0  0  0  0  0  0  0  0  0
   -6.1220   16.8400   21.7460 N   0  0  0  0  0  0  0  0  0  0  0  0
   -5.2960   17.7920   21.1950 C   0  0  0  0  0  0  0  0  0  0  0  0
   -5.8430   19.0150   21.5680 C   0  0  0  0  0  0  0  0  0  0  0  0
   -6.9820   18.8040   22.3280 N   0  0  0  0  0  0  0  0  0  0  0  0
  1  3  1  0  0  0  0
  1  4  1  0  0  0  0
  2  1  1  0  0  0  0
  5  1  1  0  0  0  0
  6  5  1  0  0  0  0
  7  6  2  0  0  0  0
  8  6  1  0  0  0  0
  9 10  1  6  0  0  0
  9  8  1  0  0  0  0
 10 11  1  0  0  0  0
 11 12  1  0  0  0  0
 12 13  2  0  0  0  0
 14 13  1  0  0  0  0
 15 14  2  0  0  0  0
 16 11  2  0  0  0  0
 16 15  1  0  0  0  0
 17 18  1  1  0  0  0
 17 19  1  0  0  0  0
 17  9  1  0  0  0  0
 20 21  1  1  0  0  0
 20 19  1  0  0  0  0
 22 21  1  0  0  0  0
 23 22  1  0  0  0  0
 24 23  2  0  0  0  0
 25 26  2  0  0  0  0
 25 24  1  0  0  0  0
 26 27  1  0  0  0  0
 27 22  2  0  0  0  0
 28 29  2  0  0  0  0
 28 20  1  0  0  0  0
 30 28  1  0  0  0  0
 31 32  1  6  0  0  0
 31 30  1  0  0  0  0
 32 33  1  0  0  0  0
 34 31  1  0  0  0  0
 35 34  2  0  0  0  0
 36 37  2  0  0  0  0
 36 35  1  0  0  0  0
 37 38  1  0  0  0  0
 38 34  1  0  0  0  0
M  END
$$$$
﻿
 OpenBabel01182309123D

 35 36  0  0  1  0  0  0  0  0999 V2000
   -4.9710   20.6290   28.3210 C   0  0  0  0  0  0  0  0  0  0  0  0
   -5.7030   19.3720   27.9780 C   0  0  0  0  0  0  0  0  0  0  0  0
   -6.0310   19.4480   26.5520 C   0  0  0  0  0  0  0  0  0  0  0  0
   -4.7080   18.1400   28.2960 C   0  0  0  0  0  0  0  0  0  0  0  0
   -6.8910   19.1860   28.7660 O   0  0  0  0  0  0  0  0  0  0  0  0
   -7.6720   18.1070   28.6020 C   0  0  0  0  0  0  0  0  0  0  0  0
   -8.6990   17.9650   29.1850 O   0  0  0  0  0  0  0  0  0  0  0  0
   -7.2640   17.2320   27.6920 N   0  0  0  0  0  0  0  0  0  0  0  0
   -7.8500   15.8560   27.4480 C   0  0  2  0  0  0  0  0  0  0  0  0
   -7.2310   15.1570   26.1490 C   0  0  0  0  0  0  0  0  0  0  0  0
   -9.3370   15.7510   27.6250 C   0  0  0  0  0  0  0  0  0  0  0  0
  -10.2120   16.6620   27.0730 C   0  0  0  0  0  0  0  0  0  0  0  0
  -11.5550   16.6570   27.3620 C   0  0  0  0  0  0  0  0  0  0  0  0
  -12.1250   15.6390   28.0710 C   0  0  0  0  0  0  0  0  0  0  0  0
  -11.2190   14.6730   28.5210 C   0  0  0  0  0  0  0  0  0  0  0  0
   -9.9400   14.6810   28.2640 C   0  0  0  0  0  0  0  0  0  0  0  0
   -6.2020   15.4370   25.6270 O   0  0  0  0  0  0  0  0  0  0  0  0
   -8.0640   14.1620   25.3650 C   0  0  0  0  0  0  0  0  0  0  0  0
   -4.6420   18.7400   22.8590 C   0  0  0  0  0  0  0  0  0  0  0  0
   -6.1450   18.9340   22.7410 C   0  0  0  0  0  0  0  0  0  0  0  0
   -6.2620   20.4790   22.8720 C   0  0  0  0  0  0  0  0  0  0  0  0
   -6.6640   18.3500   21.4420 C   0  0  0  0  0  0  0  0  0  0  0  0
   -6.7670   18.2530   23.8140 O   0  0  0  0  0  0  0  0  0  0  0  0
   -7.5140   17.1430   23.7990 C   0  0  0  0  0  0  0  0  0  0  0  0
   -8.5530   17.0750   24.4070 O   0  0  0  0  0  0  0  0  0  0  0  0
   -7.0250   16.0960   23.0940 N   0  0  0  0  0  0  0  0  0  0  0  0
   -7.7900   14.8760   22.7770 C   0  0  1  0  0  0  0  0  0  0  0  0
   -7.6900   13.8740   23.9170 C   0  0  0  0  0  0  0  0  0  0  0  0
   -9.1890   15.3210   22.4480 C   0  0  0  0  0  0  0  0  0  0  0  0
  -10.2010   15.2690   23.3240 C   0  0  0  0  0  0  0  0  0  0  0  0
  -11.4590   15.5890   23.0040 C   0  0  0  0  0  0  0  0  0  0  0  0
  -11.6930   16.1180   21.7850 C   0  0  0  0  0  0  0  0  0  0  0  0
  -10.6290   16.3630   20.9760 C   0  0  0  0  0  0  0  0  0  0  0  0
   -9.4350   15.9840   21.3230 C   0  0  0  0  0  0  0  0  0  0  0  0
   -7.3270   12.7610   23.6350 O   0  0  0  0  0  0  0  0  0  0  0  0
  2  4  1  0  0  0  0
  2  1  1  0  0  0  0
  2  5  1  0  0  0  0
  3  2  1  0  0  0  0
  6  5  1  0  0  0  0
  6  7  2  0  0  0  0
  8  6  1  0  0  0  0
  9 10  1  6  0  0  0
  9 11  1  0  0  0  0
  9  8  1  0  0  0  0
 11 16  1  0  0  0  0
 12 13  1  0  0  0  0
 12 11  2  0  0  0  0
 13 14  2  0  0  0  0
 14 15  1  0  0  0  0
 16 15  2  0  0  0  0
 17 10  2  0  0  0  0
 18 10  1  0  0  0  0
 20 19  1  0  0  0  0
 20 21  1  0  0  0  0
 20 23  1  0  0  0  0
 22 20  1  0  0  0  0
 24 23  1  0  0  0  0
 24 25  2  0  0  0  0
 26 24  1  0  0  0  0
 27 26  1  1  0  0  0
 27 28  1  0  0  0  0
 28 18  1  0  0  0  0
 29 27  1  0  0  0  0
 29 30  1  0  0  0  0
 31 30  2  0  0  0  0
 32 31  1  0  0  0  0
 33 34  1  0  0  0  0
 33 32  2  0  0  0  0
 34 29  2  0  0  0  0
 35 28  2  0  0  0  0
M  END
$$$$
﻿
 OpenBabel01182309123D

 35 36  0  0  1  0  0  0  0  0999 V2000
   -7.0530   19.7960   22.7670 C   0  0  0  0  0  0  0  0  0  0  0  0
   -7.0430   18.3700   22.3170 C   0  0  0  0  0  0  0  0  0  0  0  0
   -7.3770   18.3740   20.8910 C   0  0  0  0  0  0  0  0  0  0  0  0
   -5.5560   17.7990   22.5800 C   0  0  0  0  0  0  0  0  0  0  0  0
   -7.9630   17.5470   23.0560 O   0  0  0  0  0  0  0  0  0  0  0  0
   -7.9970   17.5740   24.3970 C   0  0  0  0  0  0  0  0  0  0  0  0
   -8.7220   16.8800   25.0340 O   0  0  0  0  0  0  0  0  0  0  0  0
   -7.1160   18.3780   24.9810 N   0  0  0  0  0  0  0  0  0  0  0  0
   -7.0700   18.7360   26.4530 C   0  0  2  0  0  0  0  0  0  0  0  0
   -5.7310   18.2180   27.1590 C   0  0  0  0  0  0  0  0  0  0  0  0
   -8.3520   18.5270   27.2040 C   0  0  0  0  0  0  0  0  0  0  0  0
   -8.3760   18.1550   28.5310 C   0  0  0  0  0  0  0  0  0  0  0  0
   -9.5410   17.8140   29.1760 C   0  0  0  0  0  0  0  0  0  0  0  0
  -10.7590   17.9980   28.5870 C   0  0  0  0  0  0  0  0  0  0  0  0
  -10.6970   18.4830   27.2770 C   0  0  0  0  0  0  0  0  0  0  0  0
   -9.5930   18.7930   26.6530 C   0  0  0  0  0  0  0  0  0  0  0  0
   -4.7860   18.8810   27.4390 O   0  0  0  0  0  0  0  0  0  0  0  0
   -5.5150   16.7310   27.3560 C   0  0  0  0  0  0  0  0  0  0  0  0
   -8.0800   12.8570   21.9020 C   0  0  0  0  0  0  0  0  0  0  0  0
   -8.2800   14.2390   22.5030 C   0  0  0  0  0  0  0  0  0  0  0  0
   -7.8400   15.1490   21.3220 C   0  0  0  0  0  0  0  0  0  0  0  0
   -9.7120   14.4230   22.9660 C   0  0  0  0  0  0  0  0  0  0  0  0
   -7.4300   14.3630   23.6260 O   0  0  0  0  0  0  0  0  0  0  0  0
   -7.6570   14.0430   24.9050 C   0  0  0  0  0  0  0  0  0  0  0  0
   -8.0980   12.9640   25.2160 O   0  0  0  0  0  0  0  0  0  0  0  0
   -7.3990   15.0030   25.8230 N   0  0  0  0  0  0  0  0  0  0  0  0
   -7.3750   14.7780   27.2800 C   0  0  1  0  0  0  0  0  0  0  0  0
   -6.6310   15.9050   27.9800 C   0  0  0  0  0  0  0  0  0  0  0  0
   -8.8060   14.6030   27.7100 C   0  0  0  0  0  0  0  0  0  0  0  0
   -9.8320   15.2280   27.1190 C   0  0  0  0  0  0  0  0  0  0  0  0
  -11.0930   15.1320   27.5540 C   0  0  0  0  0  0  0  0  0  0  0  0
  -11.3610   14.2590   28.5470 C   0  0  0  0  0  0  0  0  0  0  0  0
  -10.3500   13.4740   29.0020 C   0  0  0  0  0  0  0  0  0  0  0  0
   -9.1350   13.6480   28.5740 C   0  0  0  0  0  0  0  0  0  0  0  0
   -6.9880   16.1840   29.0960 O   0  0  0  0  0  0  0  0  0  0  0  0
  2  4  1  0  0  0  0
  2  1  1  0  0  0  0
  2  5  1  0  0  0  0
  3  2  1  0  0  0  0
  5  6  1  0  0  0  0
  6  8  1  0  0  0  0
  6  7  2  0  0  0  0
  9  8  1  6  0  0  0
  9 10  1  0  0  0  0
  9 11  1  0  0  0  0
 10 18  1  0  0  0  0
 10 17  2  0  0  0  0
 11 12  1  0  0  0  0
 12 13  2  0  0  0  0
 14 13  1  0  0  0  0
 15 14  2  0  0  0  0
 16 11  2  0  0  0  0
 16 15  1  0  0  0  0
 18 28  1  0  0  0  0
 19 20  1  0  0  0  0
 20 22  1  0  0  0  0
 20 23  1  0  0  0  0
 21 20  1  0  0  0  0
 23 24  1  0  0  0  0
 24 25  2  0  0  0  0
 24 26  1  0  0  0  0
 27 26  1  6  0  0  0
 27 29  1  0  0  0  0
 27 28  1  0  0  0  0
 28 35  2  0  0  0  0
 29 34  1  0  0  0  0
 30 31  1  0  0  0  0
 30 29  2  0  0  0  0
 31 32  2  0  0  0  0
 32 33  1  0  0  0  0
 34 33  2  0  0  0  0
M  END
$$$$